! RHF TPSS def2-SVP def2/J  VeryTightSCF D3ZERO   Opt  Grid4 FinalGrid5 RI  

%pal nprocs 16
   end

%MaxCore 1000

%geom Constraints
         {C 0 C}
         {C 10 C}
         {C 20 C}
         end
 end

%geom trust 0.3
end

%basis 
  newgto Cu "def2-TZVP" end
  newgto Zn "def2-TZVP" end
         end

%cpcm epsilon 4
        refrac 1.30
        end


* xyz 1 1
C     18.664 -14.626  19.408 
C     17.828 -15.839  19.617 
N     16.815 -16.187  18.732 
C     17.880 -16.799  20.614 newgto "def2-TZVP" end
C     16.274 -17.330  19.202 
N     16.893 -17.721  20.336 
C     19.903 -12.066  14.116 
C     18.778 -12.939  14.551 
N     17.679 -13.232  13.755 
C     18.544 -13.612  15.739 
C     16.836 -14.043  14.447 newgto "def2-TZVP" end
N     17.338 -14.294  15.662 
C     22.315 -16.818  16.603 newgto "def2-TZVP" end
C     20.952 -17.362  16.893 
N     20.717 -18.392  17.803 
C     19.735 -16.977  16.352 
C     19.399 -18.615  17.812 
N     18.781 -17.788  16.938 
C     22.365 -22.756  19.427 
C     21.148 -22.143  20.036 
N     20.868 -20.783  19.954 
C     20.134 -22.741  20.773 
C     19.725 -20.583  20.641 
N     19.255 -21.744  21.140 
C     25.175 -17.743  19.693 
C     24.941 -18.685  18.552 
N     23.736 -19.353  18.328 
C     25.823 -19.063  17.551 
C     23.890 -20.103  17.230 
N     25.142 -19.952  16.739 
C     22.272 -17.602  22.983 
C     22.387 -18.289  21.641 
O     21.696 -17.777  20.666 
O     23.092 -19.317  21.489 
C     11.311 -16.995  17.940 
C     12.581 -16.764  17.203 
N     12.896 -17.350  15.985 
C     13.686 -15.996  17.522 
C     14.143 -16.939  15.613 
N     14.649 -16.116  16.533 
C     14.928 -20.553  22.571 
C     16.398 -20.787  22.218 
O     16.894 -21.943  22.362 
O     17.067 -19.789  21.784 
Cu    16.499 -15.399  16.985 
Zn    21.957 -19.207  19.292 
H     23.276 -22.199  19.732 
H     22.324 -22.734  18.317 
H     22.476 -23.811  19.741 
H     20.404 -12.464  13.209 
H     20.658 -11.994  14.921 
H     19.555 -11.038  13.881 
H     11.173 -18.067  18.193 
H     10.425 -16.678  17.350 
H     11.315 -16.419  18.884 
H     19.399 -14.798  18.591 
H     19.234 -14.368  20.320 
H     18.037 -13.758  19.118 
H     22.251 -15.932  15.944 
H     22.958 -17.576  16.109 
H     22.827 -16.524  17.542 
H     24.373 -16.978  19.736 
H     26.153 -17.238  19.588 
H     25.135 -18.288  20.657 
H     22.353 -16.504  22.866 
H     23.038 -17.971  23.688 
H     21.267 -17.812  23.404 
H     18.546 -16.904  21.477 
H     15.439 -17.864  18.735 
H     19.163 -13.643  16.640 
H     15.884 -14.422  14.060 
H     19.469 -16.204  15.625 
H     18.874 -19.342  18.440 
H     19.985 -23.786  21.062 
H     19.234 -19.621  20.814 
H     26.862 -18.776  17.361 
H     23.124 -20.742  16.780 
H     13.854 -15.384  18.416 
H     14.639 -17.261  14.691 
H     18.317 -21.848  21.694 
H     25.518 -20.424  15.914 
H     17.767 -17.696  16.820 
H     16.753 -18.619  20.950 
H     17.523 -12.889  12.805 
H     12.295 -17.986  15.456 
H     14.844 -19.696  23.269 
H     14.468 -21.453  23.019 
H     14.371 -20.279  21.651 
*
